<?xml version="1.0" encoding="UTF-8"?>

<!-- generated on Fri Apr 19 20:05:53 2019 by SUMO netconvert Version 0.25.0
<?xml version="1.0" encoding="UTF-8"?>

<configuration xmlns:xsi="http://www.w3.org/2001/XMLSchema-instance" xsi:noNamespaceSchemaLocation="http://sumo.dlr.de/xsd/netconvertConfiguration.xsd">

    <input>
        <node-files value="hwy2junction.nod.xml"/>
        <edge-files value="hwy1edge.edg.xml"/>
    </input>

    <output>
        <output-file value="HWY1edge2junctionNet.net.xml"/>
    </output>

</configuration>
-->

<net version="0.25" xmlns:xsi="http://www.w3.org/2001/XMLSchema-instance" xsi:noNamespaceSchemaLocation="http://sumo.dlr.de/xsd/net_file.xsd">

    <location netOffset="0.00,0.00" convBoundary="0.00,0.00,0.00,500.00" origBoundary="0.00,0.00,0.00,500.00" projParameter="!"/>

    <edge id="hwy" from="entr" to="exit" priority="-1">
        <lane id="hwy_0" index="0" speed="12.00" length="500.00" shape="1.65,0.00 1.65,500.00"/>
    </edge>

    <junction id="entr" type="unregulated" x="0.00" y="0.00" incLanes="" intLanes="" shape="0.05,0.00 3.25,0.00"/>
    <junction id="exit" type="unregulated" x="0.00" y="500.00" incLanes="hwy_0" intLanes="" shape="3.25,500.00 0.05,500.00"/>

</net>
