<routes>
    <route id="rt0" edges="hwy" />
    
    <vType accel="1.0" decel="5.0" id="Car" length="5" maxSpeed="100" />
    
    <flow id="type1" color="1,1,0" begin="0" end="7200" period="15" type="Car" route="rt0" departSpeed="random" />
</routes>
